<?xml version="1.0" encoding="UTF-8"?>

<!-- generated on 2022-08-23 15:53:45 by Eclipse SUMO netedit Version 1.14.1
<configuration xmlns:xsi="http://www.w3.org/2001/XMLSchema-instance" xsi:noNamespaceSchemaLocation="http://sumo.dlr.de/xsd/netconvertConfiguration.xsd">


    <processing>
        <geometry.min-radius.fix.railways value="false"/>
        <geometry.max-grade.fix value="false"/>
        <offset.disable-normalization value="true"/>
        <lefthand value="true"/>
    </processing>

    <junctions>
        <no-turnarounds value="true"/>
        <junctions.corner-detail value="5"/>
        <junctions.limit-turn-speed value="5.5"/>
        <rectangular-lane-cut value="false"/>
    </junctions>

    <pedestrian>
        <walkingareas value="false"/>
    </pedestrian>

</configuration>
-->

<net version="1.9" junctionCornerDetail="5" lefthand="true" limitTurnSpeed="5.50" xmlns:xsi="http://www.w3.org/2001/XMLSchema-instance" xsi:noNamespaceSchemaLocation="http://sumo.dlr.de/xsd/net_file.xsd">

    <location netOffset="0.00,0.00" convBoundary="1000.00,-1700.00,3400.00,900.00" origBoundary="-10000000000.00,-10000000000.00,10000000000.00,10000000000.00" projParameter="!"/>

    <edge id=":J1_0" function="internal">
        <lane id=":J1_0_0" index="0" speed="6.51" length="9.03" shape="2392.00,-213.60 2391.65,-211.15 2390.60,-209.40 2388.85,-208.35 2386.40,-208.00"/>
    </edge>
    <edge id=":J1_1" function="internal">
        <lane id=":J1_1_0" index="0" speed="13.89" length="27.20" shape="2395.20,-213.60 2395.20,-186.40"/>
    </edge>
    <edge id=":J1_2" function="internal">
        <lane id=":J1_2_0" index="0" speed="10.36" length="24.51" shape="2398.40,-213.60 2399.35,-206.95 2402.20,-202.20 2406.95,-199.35 2413.60,-198.40"/>
    </edge>
    <edge id=":J1_3" function="internal">
        <lane id=":J1_3_0" index="0" speed="6.51" length="9.03" shape="2413.60,-208.00 2411.15,-208.35 2409.40,-209.40 2408.35,-211.15 2408.00,-213.60"/>
    </edge>
    <edge id=":J1_4" function="internal">
        <lane id=":J1_4_0" index="0" speed="13.89" length="27.20" shape="2413.60,-204.80 2386.40,-204.80"/>
    </edge>
    <edge id=":J1_5" function="internal">
        <lane id=":J1_5_0" index="0" speed="10.36" length="24.51" shape="2413.60,-201.60 2406.95,-200.65 2402.20,-197.80 2399.35,-193.05 2398.40,-186.40"/>
    </edge>
    <edge id=":J1_6" function="internal">
        <lane id=":J1_6_0" index="0" speed="6.51" length="9.03" shape="2408.00,-186.40 2408.35,-188.85 2409.40,-190.60 2411.15,-191.65 2413.60,-192.00"/>
    </edge>
    <edge id=":J1_7" function="internal">
        <lane id=":J1_7_0" index="0" speed="13.89" length="27.20" shape="2404.80,-186.40 2404.80,-213.60"/>
    </edge>
    <edge id=":J1_8" function="internal">
        <lane id=":J1_8_0" index="0" speed="10.36" length="24.51" shape="2401.60,-186.40 2400.65,-193.05 2397.80,-197.80 2393.05,-200.65 2386.40,-201.60"/>
    </edge>
    <edge id=":J1_9" function="internal">
        <lane id=":J1_9_0" index="0" speed="6.51" length="9.03" shape="2386.40,-192.00 2388.85,-191.65 2390.60,-190.60 2391.65,-188.85 2392.00,-186.40"/>
    </edge>
    <edge id=":J1_10" function="internal">
        <lane id=":J1_10_0" index="0" speed="13.89" length="27.20" shape="2386.40,-195.20 2413.60,-195.20"/>
    </edge>
    <edge id=":J1_11" function="internal">
        <lane id=":J1_11_0" index="0" speed="10.36" length="24.51" shape="2386.40,-198.40 2393.05,-199.35 2397.80,-202.20 2400.65,-206.95 2401.60,-213.60"/>
    </edge>

    <edge id="-E0" from="J1" to="J0" priority="-1">
        <lane id="-E0_0" index="0" speed="13.89" length="1386.40" shape="2386.40,-208.00 1000.00,-208.00"/>
        <lane id="-E0_1" index="1" speed="13.89" length="1386.40" shape="2386.40,-204.80 1000.00,-204.80"/>
        <lane id="-E0_2" index="2" speed="13.89" length="1386.40" shape="2386.40,-201.60 1000.00,-201.60"/>
    </edge>
    <edge id="-E1" from="J2" to="J1" priority="-1">
        <lane id="-E1_0" index="0" speed="13.89" length="1086.40" shape="2408.00,900.00 2408.00,-186.40"/>
        <lane id="-E1_1" index="1" speed="13.89" length="1086.40" shape="2404.80,900.00 2404.80,-186.40"/>
        <lane id="-E1_2" index="2" speed="13.89" length="1086.40" shape="2401.60,900.00 2401.60,-186.40"/>
    </edge>
    <edge id="-E2" from="J3" to="J1" priority="-1">
        <lane id="-E2_0" index="0" speed="13.89" length="986.40" shape="3400.00,-208.00 2413.60,-208.00"/>
        <lane id="-E2_1" index="1" speed="13.89" length="986.40" shape="3400.00,-204.80 2413.60,-204.80"/>
        <lane id="-E2_2" index="2" speed="13.89" length="986.40" shape="3400.00,-201.60 2413.60,-201.60"/>
    </edge>
    <edge id="-E3" from="J4" to="J1" priority="-1">
        <lane id="-E3_0" index="0" speed="13.89" length="1486.40" shape="2392.00,-1700.00 2392.00,-213.60"/>
        <lane id="-E3_1" index="1" speed="13.89" length="1486.40" shape="2395.20,-1700.00 2395.20,-213.60"/>
        <lane id="-E3_2" index="2" speed="13.89" length="1486.40" shape="2398.40,-1700.00 2398.40,-213.60"/>
    </edge>
    <edge id="E0" from="J0" to="J1" priority="-1">
        <lane id="E0_0" index="0" speed="13.89" length="1386.40" shape="1000.00,-192.00 2386.40,-192.00"/>
        <lane id="E0_1" index="1" speed="13.89" length="1386.40" shape="1000.00,-195.20 2386.40,-195.20"/>
        <lane id="E0_2" index="2" speed="13.89" length="1386.40" shape="1000.00,-198.40 2386.40,-198.40"/>
    </edge>
    <edge id="E1" from="J1" to="J2" priority="-1">
        <lane id="E1_0" index="0" speed="13.89" length="1086.40" shape="2392.00,-186.40 2392.00,900.00"/>
        <lane id="E1_1" index="1" speed="13.89" length="1086.40" shape="2395.20,-186.40 2395.20,900.00"/>
        <lane id="E1_2" index="2" speed="13.89" length="1086.40" shape="2398.40,-186.40 2398.40,900.00"/>
    </edge>
    <edge id="E2" from="J1" to="J3" priority="-1">
        <lane id="E2_0" index="0" speed="13.89" length="986.40" shape="2413.60,-192.00 3400.00,-192.00"/>
        <lane id="E2_1" index="1" speed="13.89" length="986.40" shape="2413.60,-195.20 3400.00,-195.20"/>
        <lane id="E2_2" index="2" speed="13.89" length="986.40" shape="2413.60,-198.40 3400.00,-198.40"/>
    </edge>
    <edge id="E3" from="J1" to="J4" priority="-1">
        <lane id="E3_0" index="0" speed="13.89" length="1486.40" shape="2408.00,-213.60 2408.00,-1700.00"/>
        <lane id="E3_1" index="1" speed="13.89" length="1486.40" shape="2404.80,-213.60 2404.80,-1700.00"/>
        <lane id="E3_2" index="2" speed="13.89" length="1486.40" shape="2401.60,-213.60 2401.60,-1700.00"/>
    </edge>

    <tlLogic id="J1" type="static" programID="0" offset="0">
        <phase duration="30" state="GrrGGrGrrGGr"/>
        <phase duration="10"  state="GrrGyrGrrGyr"/>
        <phase duration="30" state="GGrGrrGGrGrr"/>
        <phase duration="10"  state="GyrGrrGyrGrr"/>
        <phase duration="30" state="GrrGrGGrrGrG"/>
        <phase duration="10"  state="GrrGryGrrGry"/>
        <phase duration="30" state="GrGGrrGrGGrr"/>
        <phase duration="10"  state="GryGrrGryGrr"/>
    </tlLogic>

    <junction id="J0" type="dead_end" x="1000.00" y="-200.00" incLanes="-E0_0 -E0_1 -E0_2" intLanes="" shape="1000.00,-200.00 1000.00,-209.60 1000.00,-200.00"/>
    <junction id="J1" type="traffic_light" x="2400.00" y="-200.00" incLanes="-E3_0 -E3_1 -E3_2 -E2_0 -E2_1 -E2_2 -E1_0 -E1_1 -E1_2 E0_0 E0_1 E0_2" intLanes=":J1_0_0 :J1_1_0 :J1_2_0 :J1_3_0 :J1_4_0 :J1_5_0 :J1_6_0 :J1_7_0 :J1_8_0 :J1_9_0 :J1_10_0 :J1_11_0" shape="2390.40,-213.60 2409.60,-213.60 2410.04,-211.38 2410.60,-210.60 2411.38,-210.04 2412.38,-209.71 2413.60,-209.60 2413.60,-190.40 2411.38,-189.96 2410.60,-189.40 2410.04,-188.62 2409.71,-187.62 2409.60,-186.40 2390.40,-186.40 2389.96,-188.62 2389.40,-189.40 2388.62,-189.96 2387.62,-190.29 2386.40,-190.40 2386.40,-209.60 2388.62,-210.04 2389.40,-210.60 2389.96,-211.38 2390.29,-212.38">
        <request index="0"  response="000000000000" foes="000000000000" cont="0"/>
        <request index="1"  response="000000000000" foes="110100010000" cont="0"/>
        <request index="2"  response="000010000000" foes="100010110000" cont="0"/>
        <request index="3"  response="000000000000" foes="000000000000" cont="0"/>
        <request index="4"  response="000010000110" foes="100010000110" cont="0"/>
        <request index="5"  response="010110000100" foes="010110000100" cont="0"/>
        <request index="6"  response="000000000000" foes="000000000000" cont="0"/>
        <request index="7"  response="000000000000" foes="010000110100" cont="0"/>
        <request index="8"  response="000000000010" foes="110000100010" cont="0"/>
        <request index="9"  response="000000000000" foes="000000000000" cont="0"/>
        <request index="10" response="000110000010" foes="000110100010" cont="0"/>
        <request index="11" response="000100010110" foes="000100010110" cont="0"/>
    </junction>
    <junction id="J2" type="dead_end" x="2400.00" y="900.00" incLanes="E1_0 E1_1 E1_2" intLanes="" shape="2400.00,900.00 2390.40,900.00 2400.00,900.00"/>
    <junction id="J3" type="dead_end" x="3400.00" y="-200.00" incLanes="E2_0 E2_1 E2_2" intLanes="" shape="3400.00,-200.00 3400.00,-190.40 3400.00,-200.00"/>
    <junction id="J4" type="dead_end" x="2400.00" y="-1700.00" incLanes="E3_0 E3_1 E3_2" intLanes="" shape="2400.00,-1700.00 2409.60,-1700.00 2400.00,-1700.00"/>

    <connection from="-E1" to="E2" fromLane="0" toLane="0" via=":J1_6_0" tl="J1" linkIndex="6" dir="l" state="O"/>
    <connection from="-E1" to="E3" fromLane="1" toLane="1" via=":J1_7_0" tl="J1" linkIndex="7" dir="s" state="O"/>
    <connection from="-E1" to="-E0" fromLane="2" toLane="2" via=":J1_8_0" tl="J1" linkIndex="8" dir="r" state="o"/>
    <connection from="-E2" to="E3" fromLane="0" toLane="0" via=":J1_3_0" tl="J1" linkIndex="3" dir="l" state="O"/>
    <connection from="-E2" to="-E0" fromLane="1" toLane="1" via=":J1_4_0" tl="J1" linkIndex="4" dir="s" state="o"/>
    <connection from="-E2" to="E1" fromLane="2" toLane="2" via=":J1_5_0" tl="J1" linkIndex="5" dir="r" state="o"/>
    <connection from="-E3" to="-E0" fromLane="0" toLane="0" via=":J1_0_0" tl="J1" linkIndex="0" dir="l" state="O"/>
    <connection from="-E3" to="E1" fromLane="1" toLane="1" via=":J1_1_0" tl="J1" linkIndex="1" dir="s" state="O"/>
    <connection from="-E3" to="E2" fromLane="2" toLane="2" via=":J1_2_0" tl="J1" linkIndex="2" dir="r" state="o"/>
    <connection from="E0" to="E1" fromLane="0" toLane="0" via=":J1_9_0" tl="J1" linkIndex="9" dir="l" state="O"/>
    <connection from="E0" to="E2" fromLane="1" toLane="1" via=":J1_10_0" tl="J1" linkIndex="10" dir="s" state="o"/>
    <connection from="E0" to="E3" fromLane="2" toLane="2" via=":J1_11_0" tl="J1" linkIndex="11" dir="r" state="o"/>

    <connection from=":J1_0" to="-E0" fromLane="0" toLane="0" dir="l" state="M"/>
    <connection from=":J1_1" to="E1" fromLane="0" toLane="1" dir="s" state="M"/>
    <connection from=":J1_2" to="E2" fromLane="0" toLane="2" dir="r" state="M"/>
    <connection from=":J1_3" to="E3" fromLane="0" toLane="0" dir="l" state="M"/>
    <connection from=":J1_4" to="-E0" fromLane="0" toLane="1" dir="s" state="M"/>
    <connection from=":J1_5" to="E1" fromLane="0" toLane="2" dir="r" state="M"/>
    <connection from=":J1_6" to="E2" fromLane="0" toLane="0" dir="l" state="M"/>
    <connection from=":J1_7" to="E3" fromLane="0" toLane="1" dir="s" state="M"/>
    <connection from=":J1_8" to="-E0" fromLane="0" toLane="2" dir="r" state="M"/>
    <connection from=":J1_9" to="E1" fromLane="0" toLane="0" dir="l" state="M"/>
    <connection from=":J1_10" to="E2" fromLane="0" toLane="1" dir="s" state="M"/>
    <connection from=":J1_11" to="E3" fromLane="0" toLane="2" dir="r" state="M"/>

</net>
