<routes>
    <vType id="car"
   			vClass="passenger" length="5" accel="3.5" decel="2.2" guiShape="passenger"
   			sigma="1.0" maxSpeed="10"/>
    
    <vType id="car-EW"
   			vClass="passenger" length="5" accel="3.5" decel="2.2" guiShape="passenger"
   			sigma="1.0" maxSpeed="10"/>

    <vType id="motorcycle"
   			vClass="motorcycle" length="3" accel="3.8" decel="2.5" guiShape="motorcycle"
   			sigma="1.0" maxSpeed="10"/>

    <vType id="motorcycle-EW"
   			vClass="motorcycle" length="3" accel="3.8" decel="2.5" guiShape="motorcycle"
   			sigma="1.0" maxSpeed="10"/>
    
    <vType id="truck"
   			vClass="truck" length="6" accel="2.5" decel="2.2" guiShape="truck"
   			sigma="1.0" maxSpeed="7"/>

    <vType id="truck-dup1"
   			vClass="truck" length="6" accel="2.5" decel="2.2" guiShape="truck"
   			sigma="1.0" maxSpeed="7"/>
    
    <vType id="truck-EW"
   			vClass="truck" length="6" accel="2.5" decel="2.2" guiShape="truck"
   			sigma="1.0" maxSpeed="7"/>

   <vType id="ev"
      		vClass="emergency" length="7" accel="5.5" decel="2.2" sigma="1.0"
      		maxSpeed="20" guiShape="emergency" speedFactor="2.0"
      		minGapLat="0.2"/>
    
    <vType id="ev-EW"
      		vClass="emergency" length="7" accel="5.5" decel="2.2" sigma="1.0"
      		maxSpeed="20" guiShape="emergency" speedFactor="2.0"
      		minGapLat="0.2"/>
    
    <vType id="bus"
   			vClass="bus" length="8" accel="3.5" decel="2.2" guiShape="bus"
   			sigma="1.0" maxSpeed="9"/>

    <vType id="bus-dup1"
   			vClass="bus" length="8" accel="3.5" decel="2.2" guiShape="bus"
   			sigma="1.0" maxSpeed="9"/>
    
    <vType id="bus-EW"
   			vClass="bus" length="8" accel="3.5" decel="2.2" guiShape="bus"
   			sigma="1.0" maxSpeed="9"/>

    <interval begin="0" end="500000">
        <!-- Originating from left-->
        <flow id="car"   departLane="0" from="E0" to="E1" number="18000"/>
        <flow id="truck" departLane="1" from="E0" to="E2" number="20800"/>
        <flow id="bus"   departLane="2" from="E0" to="E3" number="21000"/>

        <!-- Originating from up-->
        <flow id="ev"            departLane="2" from="-E1" to="-E0" number="15000"/>
        <flow id="motorcycle"    departLane="0" from="-E1" to="E2" number="17000"/>
        <flow id="motorcycle-EW" departLane="1" from="-E1" to="E3" number="15500"/>

        <!-- Originating from right-->
        <flow id="car-EW"     departLane="1" from="-E2" to="-E0" number="12500"/>
        <flow id="truck-EW"   departLane="2" from="-E2" to="E1" number="18000"/>
        <flow id="bus-EW"     departLane="0" from="-E2" to="E3" number="17000"/>

        <!-- Originatin from down-->
        <flow id="ev-EW"      departLane="0" from="-E3" to="-E0" number="1800"/>
        <flow id="truck-dup1" departLane="1" from="-E3" to="E1" number="1700"/>
        <flow id="bus-dup1"   departLane="2" from="-E3" to="E2" number="15500"/>

    </interval>


</routes>